LTspice 24.1.10 for Windows
Circuit: D:\Classes\ELEC 6970 - Linear, Nonlinear, Chaotic Oscillators\hw4\Draft2.net
Start Time: Wed Oct 15 10:44:36 2025
solver = Normal
Maximum thread count: 12
tnom = 27
temp = 27
method = trap
D:\Classes\ELEC 6970 - Linear, Nonlinear, Chaotic Oscillators\hw4\Draft2.net(9): WARNING: Specified period is not longer than the sum of Trise, Tfall, and Ton. Increasing period to 3.

V1 V 0 PULSE(0 5 1 1 1 1 1 100)
^^^^^^^^^^^^^^^^^^^^^^^^^^^^^^^
Instance "u1:M5": Length shorter than recommended for a level 2 MOSFET.
Instance "u1:M6": Length shorter than recommended for a level 2 MOSFET.
Instance "u1:M1": Length shorter than recommended for a level 2 MOSFET.
Instance "u1:M2": Length shorter than recommended for a level 2 MOSFET.
Instance "u1:M3": Length shorter than recommended for a level 2 MOSFET.
Instance "u1:M4": Length shorter than recommended for a level 2 MOSFET.
Instance "u2:M5": Length shorter than recommended for a level 2 MOSFET.
Instance "u2:M6": Length shorter than recommended for a level 2 MOSFET.
Instance "u2:M1": Length shorter than recommended for a level 2 MOSFET.
Instance "u2:M2": Length shorter than recommended for a level 2 MOSFET.
Instance "u2:M3": Length shorter than recommended for a level 2 MOSFET.
Instance "u2:M4": Length shorter than recommended for a level 2 MOSFET.
Direct Newton iteration for .op point succeeded.
Total elapsed time: 0.299 seconds.

Files loaded:
D:\Classes\ELEC 6970 - Linear, Nonlinear, Chaotic Oscillators\hw4\Draft2.net
C:\Users\odm0003\AppData\Local\LTspice\lib\sub\ADI.lib

