LTspice 24.1.10 for Windows
Circuit: D:\Classes\ELEC 6970 - Linear, Nonlinear, Chaotic Oscillators\hw4\wein.net
Start Time: Tue Sep 23 15:20:30 2025
solver = Normal
Maximum thread count: 12
tnom = 27
temp = 27
method = trap
Instance "u2:M5": Length shorter than recommended for a level 2 MOSFET.
Instance "u2:M6": Length shorter than recommended for a level 2 MOSFET.
Instance "u2:M1": Length shorter than recommended for a level 2 MOSFET.
Instance "u2:M2": Length shorter than recommended for a level 2 MOSFET.
Instance "u2:M3": Length shorter than recommended for a level 2 MOSFET.
Instance "u2:M4": Length shorter than recommended for a level 2 MOSFET.
Direct Newton iteration for .op point succeeded.
Total elapsed time: 0.225 seconds.

Files loaded:
D:\Classes\ELEC 6970 - Linear, Nonlinear, Chaotic Oscillators\hw4\wein.net
C:\Users\odm0003\AppData\Local\LTspice\lib\cmp\standard.dio
C:\Users\odm0003\AppData\Local\LTspice\lib\sub\ADI.lib

