LTspice 24.1.10 for Windows
Circuit: D:\Classes\ELEC 6970 - Linear, Nonlinear, Chaotic Oscillators\hw5\hw5.net
Start Time: Wed Oct 15 11:30:14 2025
solver = Normal
Maximum thread count: 12
tnom = 27
temp = 27
method = trap
Direct Newton iteration for .op point succeeded.
Total elapsed time: 0.262 seconds.

Files loaded:
D:\Classes\ELEC 6970 - Linear, Nonlinear, Chaotic Oscillators\hw5\hw5.net
C:\Users\odm0003\AppData\Local\LTspice\lib\cmp\standard.mos

